
     RDKit          3D

 34 36  0  0  0  0  0  0  0  0999 V2000
   -1.8168   -2.3682    0.7214 C   0  0  0  0  0  0  0  0  0  0  0  0
   -2.4090   -1.0784    0.2193 C   0  0  0  0  0  0  0  0  0  0  0  0
   -1.8222   -0.3632   -0.7902 C   0  0  0  0  0  0  0  0  0  0  0  0
   -0.5256   -0.7931   -1.4349 C   0  0  0  0  0  0  0  0  0  0  0  0
    0.6177   -0.3801   -0.6219 N   0  0  0  0  0  0  0  0  0  0  0  0
    1.9640   -0.6694   -1.0258 C   0  0  0  0  0  0  0  0  0  0  0  0
    2.1709   -1.4306   -2.0105 O   0  0  0  0  0  0  0  0  0  0  0  0
    3.1184   -0.1160   -0.2822 C   0  0  0  0  0  0  0  0  0  0  0  0
    4.2931   -0.8796   -0.1569 C   0  0  0  0  0  0  0  0  0  0  0  0
    5.3942   -0.3786    0.5442 C   0  0  0  0  0  0  0  0  0  0  0  0
    6.5164   -1.1301    0.6661 F   0  0  0  0  0  0  0  0  0  0  0  0
    5.3381    0.8937    1.1187 C   0  0  0  0  0  0  0  0  0  0  0  0
    6.4061    1.3818    1.7969 F   0  0  0  0  0  0  0  0  0  0  0  0
    4.1837    1.6688    0.9858 C   0  0  0  0  0  0  0  0  0  0  0  0
    3.0775    1.1739    0.2865 C   0  0  0  0  0  0  0  0  0  0  0  0
    1.9950    1.9765    0.1264 F   0  0  0  0  0  0  0  0  0  0  0  0
   -2.4172    0.8814   -1.2202 N   0  0  0  0  0  0  0  0  0  0  0  0
   -3.6041    1.2990   -0.6081 N   0  0  0  0  0  0  0  0  0  0  0  0
   -4.2943    2.3901   -0.8622 N   0  0  0  0  0  0  0  0  0  0  0  0
   -5.3383    2.3152    0.0004 C   0  0  0  0  0  0  0  0  0  0  0  0
   -6.5926    3.5327    0.0922 Cl  0  0  0  0  0  0  0  0  0  0  0  0
   -5.3189    1.2056    0.7893 N   0  0  0  0  0  0  0  0  0  0  0  0
   -4.1970    0.6110    0.3495 C   0  0  0  0  0  0  0  0  0  0  0  0
   -3.6421   -0.6133    0.8170 N   0  0  0  0  0  0  0  0  0  0  0  0
   -2.3524   -2.7195    1.6279 H   0  0  0  0  0  0  0  0  0  0  0  0
   -0.7497   -2.2271    0.9928 H   0  0  0  0  0  0  0  0  0  0  0  0
   -1.9044   -3.1524   -0.0593 H   0  0  0  0  0  0  0  0  0  0  0  0
   -0.5057   -1.8933   -1.5855 H   0  0  0  0  0  0  0  0  0  0  0  0
   -0.4424   -0.3271   -2.4401 H   0  0  0  0  0  0  0  0  0  0  0  0
    0.4524    0.0840    0.3001 H   0  0  0  0  0  0  0  0  0  0  0  0
    4.3526   -1.8707   -0.5903 H   0  0  0  0  0  0  0  0  0  0  0  0
    4.1490    2.6611    1.4172 H   0  0  0  0  0  0  0  0  0  0  0  0
   -1.9770    1.4655   -1.9660 H   0  0  0  0  0  0  0  0  0  0  0  0
   -4.1190   -1.1497    1.5758 H   0  0  0  0  0  0  0  0  0  0  0  0
  1  2  1  0
  2  3  2  0
  3  4  1  0
  4  5  1  0
  5  6  1  0
  6  7  2  0
  6  8  1  0
  8  9  2  0
  9 10  1  0
 10 11  1  0
 10 12  2  0
 12 13  1  0
 12 14  1  0
 14 15  2  0
 15 16  1  0
  3 17  1  0
 17 18  1  0
 18 19  1  0
 19 20  2  0
 20 21  1  0
 20 22  1  0
 22 23  2  0
 23 24  1  0
 24  2  1  0
 15  8  1  0
 23 18  1  0
  1 25  1  0
  1 26  1  0
  1 27  1  0
  4 28  1  0
  4 29  1  0
  5 30  1  0
  9 31  1  0
 14 32  1  0
 17 33  1  0
 24 34  1  0
M  END
$$$$