
     RDKit          3D

 43 45  0  0  0  0  0  0  0  0999 V2000
    6.2153    1.3118   -0.5050 C   0  0  0  0  0  0  0  0  0  0  0  0
    4.7800    1.3668   -0.0887 C   0  0  0  0  0  0  0  0  0  0  0  0
    4.2848    2.4728    0.5994 C   0  0  0  0  0  0  0  0  0  0  0  0
    2.9460    2.4955    0.9824 C   0  0  0  0  0  0  0  0  0  0  0  0
    2.0890    1.4153    0.6919 C   0  0  0  0  0  0  0  0  0  0  0  0
    2.6513    0.2874    0.0298 C   0  0  0  0  0  0  0  0  0  0  0  0
    3.9620    0.3128   -0.3394 N   0  0  0  0  0  0  0  0  0  0  0  0
    1.9132   -0.9132   -0.2348 N   0  0  0  0  0  0  0  0  0  0  0  0
    0.7365   -1.2972    0.5360 C   0  0  2  0  0  0  0  0  0  0  0  0
    0.4508   -2.8114    0.4076 C   0  0  0  0  0  0  0  0  0  0  0  0
    1.5029   -3.6616    1.1255 C   0  0  0  0  0  0  0  0  0  0  0  0
    1.4646   -3.4230    2.4879 F   0  0  0  0  0  0  0  0  0  0  0  0
    1.2450   -5.0012    0.8991 F   0  0  0  0  0  0  0  0  0  0  0  0
   -0.4135   -0.4290    0.0955 C   0  0  0  0  0  0  0  0  0  0  0  0
   -1.4921   -0.9649   -0.6932 N   0  0  0  0  0  0  0  0  0  0  0  0
   -2.8127   -0.3936   -0.7255 C   0  0  0  0  0  0  0  0  0  0  0  0
   -3.3651    0.2206    0.4130 C   0  0  0  0  0  0  0  0  0  0  0  0
   -4.6619    0.7607    0.3805 C   0  0  0  0  0  0  0  0  0  0  0  0
   -5.2318    1.4166    1.6080 C   0  0  0  0  0  0  0  0  0  0  0  0
   -5.4185    0.6678   -0.8042 C   0  0  0  0  0  0  0  0  0  0  0  0
   -7.0506    1.3198   -0.9071 Cl  0  0  0  0  0  0  0  0  0  0  0  0
   -4.8773    0.0391   -1.9297 C   0  0  0  0  0  0  0  0  0  0  0  0
   -3.5869   -0.4938   -1.8920 C   0  0  0  0  0  0  0  0  0  0  0  0
   -3.0849   -1.0946   -3.0003 F   0  0  0  0  0  0  0  0  0  0  0  0
   -0.4022    0.8410    0.3679 N   0  0  0  0  0  0  0  0  0  0  0  0
    0.6410    1.5600    1.0400 C   0  0  0  0  0  0  0  0  0  0  0  0
    0.2982    2.4353    1.8795 O   0  0  0  0  0  0  0  0  0  0  0  0
    6.8583    1.1893    0.3917 H   0  0  0  0  0  0  0  0  0  0  0  0
    6.3885    0.4559   -1.1914 H   0  0  0  0  0  0  0  0  0  0  0  0
    6.4950    2.2490   -1.0312 H   0  0  0  0  0  0  0  0  0  0  0  0
    4.9257    3.3163    0.8249 H   0  0  0  0  0  0  0  0  0  0  0  0
    2.5747    3.3793    1.4863 H   0  0  0  0  0  0  0  0  0  0  0  0
    2.3253   -1.5938   -0.9136 H   0  0  0  0  0  0  0  0  0  0  0  0
    0.9251   -1.0906    1.6136 H   0  0  0  0  0  0  0  0  0  0  0  0
   -0.5432   -3.0423    0.8504 H   0  0  0  0  0  0  0  0  0  0  0  0
    0.4311   -3.1070   -0.6639 H   0  0  0  0  0  0  0  0  0  0  0  0
    2.5190   -3.4283    0.7438 H   0  0  0  0  0  0  0  0  0  0  0  0
   -1.2843   -1.7491   -1.3501 H   0  0  0  0  0  0  0  0  0  0  0  0
   -2.7934    0.2610    1.3316 H   0  0  0  0  0  0  0  0  0  0  0  0
   -5.5098    2.4665    1.3778 H   0  0  0  0  0  0  0  0  0  0  0  0
   -4.5007    1.4286    2.4443 H   0  0  0  0  0  0  0  0  0  0  0  0
   -6.1344    0.8634    1.9427 H   0  0  0  0  0  0  0  0  0  0  0  0
   -5.4599   -0.0378   -2.8392 H   0  0  0  0  0  0  0  0  0  0  0  0
  1  2  1  0
  2  3  2  0
  3  4  1  0
  4  5  2  0
  5  6  1  0
  6  7  2  0
  6  8  1  0
  8  9  1  0
  9 10  1  0
 10 11  1  0
 11 12  1  0
 11 13  1  0
  9 14  1  0
 14 15  1  0
 15 16  1  0
 16 17  2  0
 17 18  1  0
 18 19  1  0
 18 20  2  0
 20 21  1  0
 20 22  1  0
 22 23  2  0
 23 24  1  0
 14 25  2  0
 25 26  1  0
 26 27  2  0
  7  2  1  0
 23 16  1  0
 26  5  1  0
  1 28  1  0
  1 29  1  0
  1 30  1  0
  3 31  1  0
  4 32  1  0
  8 33  1  0
  9 34  1  1
 10 35  1  0
 10 36  1  0
 11 37  1  0
 15 38  1  0
 17 39  1  0
 19 40  1  0
 19 41  1  0
 19 42  1  0
 22 43  1  0
M  END
$$$$