ZU6
  -OEChem-08162421323D

 36 37  0     0  0  0  0  0  0999 V2000
    4.7700    0.6810    0.3130 C   0  0  0  0  0  0  0  0  0  0  0  0
    3.9180   -0.3290   -0.0750 C   0  0  0  0  0  0  0  0  0  0  0  0
    1.5920   -1.1170   -0.5690 C   0  0  0  0  0  0  0  0  0  0  0  0
   -0.8170   -2.2390    1.2270 O   0  0  0  0  0  0  0  0  0  0  0  0
   -1.2310   -2.5010    0.1180 C   0  0  0  0  0  0  0  0  0  0  0  0
   -2.1610   -3.4640   -0.0440 N   0  0  0  0  0  0  0  0  0  0  0  0
   -2.6710   -4.1920    1.1190 C   0  0  0  0  0  0  0  0  0  0  0  0
   -0.7060   -1.7510   -1.0790 C   0  0  0  0  0  0  0  0  0  0  0  0
    0.2870   -0.7670   -0.6410 N   0  0  0  0  0  0  0  0  0  0  0  0
    1.9630   -2.2390   -0.8620 O   0  0  0  0  0  0  0  0  0  0  0  0
    2.5500   -0.0780   -0.1620 C   0  0  0  0  0  0  0  0  0  0  0  0
    4.2770    1.9420    0.6220 C   0  0  0  0  0  0  0  0  0  0  0  0
    2.9280    2.2090    0.5480 C   0  0  0  0  0  0  0  0  0  0  0  0
    2.0450    1.2050    0.1470 C   0  0  0  0  0  0  0  0  0  0  0  0
    0.7090    1.4240    0.0610 N   0  0  0  0  0  0  0  0  0  0  0  0
   -0.1110    0.4900   -0.3110 C   0  0  0  0  0  0  0  0  0  0  0  0
   -1.5810    0.8150   -0.3810 C   0  0  0  0  0  0  0  0  0  0  0  0
   -1.8010    2.2730    0.0290 C   0  0  0  0  0  0  0  0  0  0  0  0
   -3.2700    2.5980   -0.0410 C   0  0  0  0  0  0  0  0  0  0  0  0
   -3.7010    3.8290    0.2770 O   0  0  0  0  0  0  0  0  0  0  0  0
   -4.0610    1.7510   -0.3840 O   0  0  0  0  0  0  0  0  0  0  0  0
    5.8310    0.4900    0.3810 H   0  0  0  0  0  0  0  0  0  0  0  0
    4.3070   -1.3090   -0.3110 H   0  0  0  0  0  0  0  0  0  0  0  0
   -2.4910   -3.6730   -0.9320 H   0  0  0  0  0  0  0  0  0  0  0  0
   -3.4090   -4.9250    0.7940 H   0  0  0  0  0  0  0  0  0  0  0  0
   -1.8480   -4.7030    1.6180 H   0  0  0  0  0  0  0  0  0  0  0  0
   -3.1360   -3.4910    1.8120 H   0  0  0  0  0  0  0  0  0  0  0  0
   -0.2400   -2.4530   -1.7720 H   0  0  0  0  0  0  0  0  0  0  0  0
   -1.5290   -1.2400   -1.5780 H   0  0  0  0  0  0  0  0  0  0  0  0
    4.9600    2.7220    0.9250 H   0  0  0  0  0  0  0  0  0  0  0  0
    2.5560    3.1930    0.7920 H   0  0  0  0  0  0  0  0  0  0  0  0
   -1.9380    0.6670   -1.4010 H   0  0  0  0  0  0  0  0  0  0  0  0
   -2.1310    0.1610    0.2950 H   0  0  0  0  0  0  0  0  0  0  0  0
   -1.4440    2.4210    1.0480 H   0  0  0  0  0  0  0  0  0  0  0  0
   -1.2510    2.9270   -0.6470 H   0  0  0  0  0  0  0  0  0  0  0  0
   -4.6530    3.9900    0.2170 H   0  0  0  0  0  0  0  0  0  0  0  0
  1 12  2  0  0  0  0
 12 13  1  0  0  0  0
  1  2  1  0  0  0  0
 13 14  2  0  0  0  0
  2 11  2  0  0  0  0
 11 14  1  0  0  0  0
 14 15  1  0  0  0  0
  3 11  1  0  0  0  0
 15 16  2  0  0  0  0
  3 10  2  0  0  0  0
  3  9  1  0  0  0  0
 19 21  2  0  0  0  0
  9 16  1  0  0  0  0
 16 17  1  0  0  0  0
  8  9  1  0  0  0  0
 18 19  1  0  0  0  0
 17 18  1  0  0  0  0
 19 20  1  0  0  0  0
  5  8  1  0  0  0  0
  4  5  2  0  0  0  0
  5  6  1  0  0  0  0
  6  7  1  0  0  0  0
  1 22  1  0  0  0  0
  2 23  1  0  0  0  0
  6 24  1  0  0  0  0
  7 25  1  0  0  0  0
  7 26  1  0  0  0  0
  7 27  1  0  0  0  0
  8 28  1  0  0  0  0
  8 29  1  0  0  0  0
 12 30  1  0  0  0  0
 13 31  1  0  0  0  0
 17 32  1  0  0  0  0
 17 33  1  0  0  0  0
 18 34  1  0  0  0  0
 18 35  1  0  0  0  0
 20 36  1  0  0  0  0
M  END
> <OPENEYE_ISO_SMILES>
CNC(=O)Cn1c(nc2ccccc2c1=O)CCC(=O)O

> <OPENEYE_INCHI>
InChI=1S/C14H15N3O4/c1-15-12(18)8-17-11(6-7-13(19)20)16-10-5-3-2-4-9(10)14(17)21/h2-5H,6-8H2,1H3,(H,15,18)(H,19,20)

> <OPENEYE_INCHIKEY>
DEMTVGMQPPAESO-UHFFFAOYSA-N

> <FORMULA>
C14H15N3O4

$$$$